37
C     2.385869030721     -1.389477726067     -1.191916462235
C     1.441563499134     -0.939452281616     -0.279460710649
C     1.871971527343     -0.243980462293      0.859060501793
C     3.227405332075     -0.052314851993      1.074539345637
C     4.162144776881     -0.469622942301      0.143324939614
C     3.734699659450     -1.142401907444     -0.987501644883
H     2.073571241007     -1.931008558306     -2.066829803160
H     3.532902766406      0.431099542327      1.988074521548
H     5.210854665975     -0.291168516243      0.311814731004
H     4.449586603200     -1.493555278150     -1.713541747571
N     0.987738799795      0.072599159153      1.933559154175
N    -0.020257618317      0.766032108279      1.797393314178
C    -0.295941150876      1.502152605910      0.609218385183
C    -1.518342188148      1.406163135587     -0.064351939559
C     0.613953462201      2.487743020741      0.229108792765
C    -1.772125373117      2.287388664243     -1.112687766326
C     0.346174084684      3.361158025972     -0.804134630621
H     1.534180357429      2.567883458675      0.782296259899
C    -0.859721913134      3.254350555037     -1.480491164279
H    -2.712299916113      2.184445177581     -1.627872085208
H     1.064280259231      4.117983532815     -1.071439604544
H    -1.093216811371      3.925744414553     -2.290658973609
O     0.113242858644     -1.143626233994     -0.406447482885
O    -2.486218693237      0.481230766098      0.112328388868
O    -2.270103293243     -2.540978187854      0.108202179594
C    -3.202924370877     -1.695593937621      0.730507041149
C    -2.610610893757     -0.393532115552      1.222611838575
C    -0.354113934636     -2.153343093493     -1.272893859659
C    -1.860673767970     -2.193786082456     -1.189159902114
H    -3.273549753767      0.068520663463      1.953098064167
H    -1.660452469016     -0.586380888127      1.695559467439
H    -4.047724156163     -1.488842518706      0.071392040653
H    -3.572864857977     -2.251375336643      1.587318092162
H    -2.263967905377     -1.232046423276     -1.486356078540
H    -2.215694181752     -2.948146029144     -1.893697448428
H    -0.069234322484     -1.941679519558     -2.303104801280
H     0.072867392380     -3.111476502433     -0.981261316830